<?xml version="1.0" encoding="UTF-8"?>

<!-- generated on 2024-05-03 00:15:34 by Eclipse SUMO sumo Version 1.19.0
-->

<configuration xmlns:xsi="http://www.w3.org/2001/XMLSchema-instance" xsi:noNamespaceSchemaLocation="http://sumo.dlr.de/xsd/sumoConfiguration.xsd">

    <input>
        <net-file value="Flat ramp.net.xml"/>
        <route-files value="Flat ramp.rou.xml"/>
    </input>

    <time>
        <begin value="0"/>
    </time>

</configuration>
