<?xml version="1.0" encoding="UTF-8"?>

<!-- generated on 2024-05-11 18:19:16 by Eclipse SUMO sumo Version 1.19.0
-->

<configuration xmlns:xsi="http://www.w3.org/2001/XMLSchema-instance" xsi:noNamespaceSchemaLocation="http://sumo.dlr.de/xsd/sumoConfiguration.xsd">

    <input>
        <net-file value="Stereo ramp.net.xml"/>
        <route-files value="Stereo ramp.rou.xml"/>
    </input>

    <time>
        <begin value="0"/>
    </time>
</configuration>
